Version 4
SHEET 1 1964 680
WIRE -176 -160 -176 -176
WIRE -176 -160 -256 -160
WIRE 192 -160 192 -176
WIRE 192 -160 112 -160
WIRE -256 -128 -256 -160
WIRE -176 -128 -176 -160
WIRE 112 -128 112 -160
WIRE 1120 -32 624 -32
WIRE -256 -16 -256 -48
WIRE -176 -16 -176 -64
WIRE -176 -16 -256 -16
WIRE -256 0 -256 -16
WIRE 112 32 112 -48
WIRE 416 32 112 32
WIRE 624 32 624 -32
WIRE 1408 32 1296 32
WIRE 1568 32 1472 32
WIRE 624 48 624 32
WIRE -16 64 -16 48
WIRE -16 64 -96 64
WIRE 1120 64 1120 -32
WIRE -96 80 -96 64
WIRE 1296 112 1296 32
WIRE 1408 112 1296 112
WIRE 1568 112 1568 32
WIRE 1568 112 1472 112
WIRE -16 128 -16 64
WIRE 16 128 -16 128
WIRE 224 128 176 128
WIRE 368 128 304 128
WIRE 576 128 368 128
WIRE -224 160 -256 160
WIRE -96 160 -144 160
WIRE 16 160 -96 160
WIRE 224 160 176 160
WIRE 624 160 624 144
WIRE 960 176 768 176
WIRE 1088 176 1024 176
WIRE -16 192 -16 128
WIRE 16 192 -16 192
WIRE 224 192 176 192
WIRE -256 224 -256 160
WIRE -112 224 -128 224
WIRE 16 224 -32 224
WIRE 416 224 416 32
WIRE 416 224 176 224
WIRE 624 224 624 160
WIRE 624 224 416 224
WIRE 624 256 624 224
WIRE 672 256 624 256
WIRE 768 256 768 176
WIRE 768 256 736 256
WIRE 912 256 848 256
WIRE 1088 256 1088 176
WIRE 1088 256 992 256
WIRE 1120 256 1120 144
WIRE 1120 256 1088 256
WIRE 1120 272 1120 256
WIRE 1296 272 1296 112
WIRE 1424 272 1296 272
WIRE 1568 272 1568 112
WIRE 1568 272 1488 272
WIRE -256 352 -256 304
WIRE 768 352 768 256
WIRE 896 352 768 352
WIRE 1088 352 1088 256
WIRE 1088 352 960 352
WIRE 1568 352 1568 272
WIRE 1600 352 1568 352
WIRE 1296 416 1296 272
WIRE 1312 416 1296 416
WIRE 1424 416 1392 416
WIRE 1568 416 1568 352
WIRE 1568 416 1488 416
FLAG -256 352 0
FLAG -256 0 0
FLAG 224 192 VCC2
FLAG 192 -176 Vcc2
FLAG 224 160 VCC1
FLAG -176 -176 VCC1
FLAG 368 128 Vg
FLAG -128 224 Vg
FLAG -16 48 0
FLAG 624 32 drain
FLAG 624 160 source
FLAG 1120 272 0
FLAG 1600 352 0
SYMBOL AutoGenerated\\UCC5350SBD_TRANS 96 176 R0
SYMATTR InstName U1
SYMBOL voltage -256 208 R0
WINDOW 123 0 0 Left 0
WINDOW 39 0 0 Left 0
WINDOW 3 -51 153 VLeft 2
SYMATTR Value PULSE(0 5 0 2n 2n 2u 20u)
SYMATTR InstName V1
SYMBOL voltage 112 -144 R0
WINDOW 123 0 0 Left 0
WINDOW 39 0 0 Left 0
SYMATTR InstName V2
SYMATTR Value 15
SYMBOL cap -160 -64 R180
WINDOW 0 24 56 Left 2
WINDOW 3 24 8 Left 2
SYMATTR InstName C2
SYMATTR Value 1u
SYMBOL voltage -256 -144 R0
WINDOW 123 0 0 Left 0
WINDOW 39 0 0 Left 0
SYMATTR InstName V3
SYMATTR Value 5
SYMBOL res -128 144 R90
WINDOW 0 0 56 VBottom 2
WINDOW 3 32 56 VTop 2
SYMATTR InstName R1
SYMATTR Value 10
SYMBOL res -112 64 R0
SYMATTR InstName R2
SYMATTR Value 10k
SYMBOL res 1008 240 R90
WINDOW 0 0 56 VBottom 2
WINDOW 3 32 56 VTop 2
SYMATTR InstName R4
SYMATTR Value 10
SYMBOL voltage 1120 48 R0
WINDOW 123 0 0 Left 0
WINDOW 39 0 0 Left 0
SYMATTR InstName V4
SYMATTR Value 10
SYMBOL res -16 208 R90
WINDOW 0 0 56 VBottom 2
WINDOW 3 32 56 VTop 2
SYMATTR InstName R5
SYMATTR Value 1.2
SYMBOL res 320 112 R90
WINDOW 0 0 56 VBottom 2
WINDOW 3 32 56 VTop 2
SYMATTR InstName R6
SYMATTR Value 1.2
SYMBOL nmos 576 48 R0
SYMATTR InstName M1
SYMATTR Value IPW65R070C6_L0
SYMATTR Prefix X
SYMBOL ind 752 272 R270
WINDOW 0 32 56 VTop 2
WINDOW 3 5 56 VBottom 2
SYMATTR InstName L1
SYMATTR Value 6.4u
SYMATTR SpiceLine IC=0A
SYMBOL cap 1488 256 R90
WINDOW 0 0 32 VBottom 2
WINDOW 3 32 32 VTop 2
SYMATTR InstName C4
SYMATTR Value 65n
SYMBOL cap 1488 400 R90
WINDOW 0 0 32 VBottom 2
WINDOW 3 32 32 VTop 2
SYMATTR InstName C5
SYMATTR Value 65n
SYMBOL res 1408 400 R90
WINDOW 0 0 56 VBottom 2
WINDOW 3 32 56 VTop 2
SYMATTR InstName R3
SYMATTR Value 10
SYMBOL diode 1408 128 R270
WINDOW 0 32 32 VTop 2
WINDOW 3 0 32 VBottom 2
SYMATTR InstName D1
SYMATTR Value Dmbr745
SYMBOL cap 960 336 R90
WINDOW 0 0 32 VBottom 2
WINDOW 3 32 32 VTop 2
SYMATTR InstName C1
SYMATTR Value 100n
SYMBOL diode 672 272 R270
WINDOW 0 32 32 VTop 2
WINDOW 3 0 32 VBottom 2
SYMATTR InstName D2
SYMATTR Value Dmbr745
TEXT -720 520 Left 2 !.include C:\\Users\\joey2\\Documents\\3e jaar\\BAP\\Github\\EDM_Powersupply\\Library\\IPW65R037C6_mosfet\\SimulationModel_CoolMOS_C6_MOSFET_650V_Spice.lib
TEXT -720 480 Left 2 !.tran 0 30u 0 1u
TEXT 752 -224 Left 2 ;High-side switching
TEXT 1344 -72 Left 2 ;Dumped some components here: easy for copying
TEXT 1176 -160 Left 2 !.model BZX84C6V2L D(Is=1.5n Rs=.5 Cjo=185p nbv=3 bv=6.2 Ibv=1m Vpk=6.2 mfg=OnSemi type=Zener)
TEXT 1184 -128 Left 2 !.model MyIdealDiode D(Ron=0 Roff=1Meg Vfwd=0.7)
TEXT 400 -288 Left 2 ;V4a: Gate driver included
TEXT 1184 -104 Left 2 !.MODEL 1N4007 D  ( IS=76.9p RS=42.0m BV=1.00k IBV=5.00u\n+ CJO=26.5p  M=0.333 N=1.45 TT=4.32u )
TEXT 1184 -48 Left 2 !.MODEL Dmbr745 d\n+IS=1.18724e-05 RS=0.0227191 N=1.22913 EG=0.645632\n+XTI=0.5 BV=45 IBV=0.0001 CJO=1e-11\n+VJ=0.7 M=0.5 FC=0.5 TT=0\n+KF=0 AF=1
TEXT 1544 -48 Left 2 !.MODEL DI_1N5819 D  ( IS=390n RS=0.115 BV=40.0 IBV=1.00m\n+ CJO=203p  M=0.333 N=1.70 TT=4.32u )
RECTANGLE Normal 560 -256 368 -320 2
