Version 4
SHEET 1 2028 680
WIRE -176 -160 -176 -176
WIRE -176 -160 -256 -160
WIRE -112 -160 -176 -160
WIRE 192 -160 192 -176
WIRE 192 -160 112 -160
WIRE -256 -128 -256 -160
WIRE -176 -128 -176 -160
WIRE -112 -128 -112 -160
WIRE 112 -128 112 -160
WIRE 720 -32 624 -32
WIRE 1056 -32 800 -32
WIRE -256 -16 -256 -48
WIRE -176 -16 -176 -64
WIRE -176 -16 -256 -16
WIRE -112 -16 -112 -64
WIRE -112 -16 -176 -16
WIRE -256 0 -256 -16
WIRE 112 32 112 -48
WIRE 432 32 112 32
WIRE 624 48 624 -32
WIRE 1056 64 1056 -32
WIRE -16 128 -16 48
WIRE 16 128 -16 128
WIRE 224 128 176 128
WIRE 320 128 304 128
WIRE 512 128 320 128
WIRE 576 128 512 128
WIRE 16 160 -256 160
WIRE 224 160 176 160
WIRE -16 192 -16 128
WIRE 16 192 -16 192
WIRE 224 192 176 192
WIRE -256 224 -256 160
WIRE -112 224 -128 224
WIRE 16 224 -32 224
WIRE 272 224 176 224
WIRE 288 224 272 224
WIRE 416 224 368 224
WIRE 432 224 432 32
WIRE 432 224 416 224
WIRE 624 224 624 144
WIRE 624 224 432 224
WIRE 624 256 624 224
WIRE 736 256 624 256
WIRE 1056 256 1056 144
WIRE 1056 256 896 256
WIRE 512 272 512 128
WIRE 1056 272 1056 256
WIRE 272 304 272 224
WIRE 416 304 416 224
WIRE -256 352 -256 304
FLAG -256 352 0
FLAG -256 0 0
FLAG 224 192 VCC2
FLAG 192 -176 Vcc2
FLAG 224 160 VCC1
FLAG -176 -176 VCC1
FLAG 320 128 Vg
FLAG -128 224 Vg
FLAG -16 48 0
FLAG 1056 272 0
FLAG 512 352 0
SYMBOL AutoGenerated\\UCC5350SBD_TRANS 96 176 R0
SYMATTR InstName U1
SYMBOL voltage -256 208 R0
WINDOW 123 0 0 Left 0
WINDOW 39 0 0 Left 0
WINDOW 3 -51 153 VLeft 2
SYMATTR Value PULSE(0 5 0 2n 2n 2u 20u)
SYMATTR InstName V1
SYMBOL voltage 112 -144 R0
WINDOW 123 0 0 Left 0
WINDOW 39 0 0 Left 0
SYMATTR InstName V2
SYMATTR Value 15
SYMBOL cap -160 -64 R180
WINDOW 0 24 56 Left 2
WINDOW 3 24 8 Left 2
SYMATTR InstName C2
SYMATTR Value 1u
SYMBOL voltage -256 -144 R0
WINDOW 123 0 0 Left 0
WINDOW 39 0 0 Left 0
SYMATTR InstName V3
SYMATTR Value 5
SYMBOL res -16 208 R90
WINDOW 0 0 56 VBottom 2
WINDOW 3 32 56 VTop 2
SYMATTR InstName R5
SYMATTR Value 1.2
SYMBOL res 320 112 R90
WINDOW 0 0 56 VBottom 2
WINDOW 3 32 56 VTop 2
SYMATTR InstName R6
SYMATTR Value 1
SYMBOL voltage 384 224 R90
WINDOW 0 -32 56 VBottom 2
WINDOW 3 32 56 VTop 2
WINDOW 123 0 0 Left 0
WINDOW 39 0 0 Left 0
SYMATTR InstName V5
SYMATTR Value 8.5
SYMBOL cap -128 -128 R0
SYMATTR InstName C4
SYMATTR Value 100n
SYMBOL res 720 272 R270
WINDOW 0 32 56 VTop 2
WINDOW 3 0 56 VBottom 2
SYMATTR InstName R2
SYMATTR Value 10
SYMBOL voltage 1056 48 R0
WINDOW 123 0 0 Left 0
WINDOW 39 0 0 Left 0
SYMATTR InstName V4
SYMATTR Value 15
SYMBOL nmos 576 48 R0
SYMATTR InstName M1
SYMATTR Value IPW65R037C6_L0
SYMATTR Prefix X
SYMBOL ind 912 240 R90
WINDOW 0 5 56 VBottom 2
WINDOW 3 32 56 VTop 2
SYMATTR InstName L1
SYMATTR Value 6.4u
SYMBOL res 496 256 R0
SYMATTR InstName R1
SYMATTR Value 10k
SYMBOL ind 816 -48 R90
WINDOW 0 5 56 VBottom 2
WINDOW 3 32 56 VTop 2
SYMATTR InstName L2
SYMATTR Value 100n
TEXT -720 520 Left 2 !.include C:\\Users\\joey2\\Documents\\3e jaar\\BAP\\Github\\EDM_Powersupply\\Library\\IPW65R037C6_mosfet\\SimulationModel_CoolMOS_C6_MOSFET_650V_Spice.lib
TEXT -720 480 Left 2 !.tran 0 30u 0
TEXT 752 -224 Left 2 ;High-side switching
TEXT 1344 -72 Left 2 ;Dumped some components here: easy for copying
TEXT 1176 -160 Left 2 !.model BZX84C6V2L D(Is=1.5n Rs=.5 Cjo=185p nbv=3 bv=6.2 Ibv=1m Vpk=6.2 mfg=OnSemi type=Zener)
TEXT 1184 -128 Left 2 !.model MID D(Ron=0 Roff=1Meg Vfwd=0.7)
TEXT 400 -288 Left 2 ;V4a: Gate driver included
TEXT 1184 -104 Left 2 !.MODEL 1N4007 D  ( IS=76.9p RS=42.0m BV=1.00k IBV=5.00u\n+ CJO=26.5p  M=0.333 N=1.45 TT=4.32u )
TEXT 1184 -48 Left 2 !.MODEL Dmbr745 d\n+IS=1.18724e-05 RS=0.0227191 N=1.22913 EG=0.645632\n+XTI=0.5 BV=45 IBV=0.0001 CJO=1e-11\n+VJ=0.7 M=0.5 FC=0.5 TT=0\n+KF=0 AF=1
TEXT 1544 -48 Left 2 !.MODEL DI_1N5819 D  ( IS=390n RS=0.115 BV=40.0 IBV=1.00m\n+ CJO=203p  M=0.333 N=1.70 TT=4.32u )
TEXT 1224 80 Left 2 !.model fet NMOS(vto=2.4 kp=150)
TEXT 1240 136 Left 2 ;IPW65R070C6_L0
RECTANGLE Normal 560 -256 368 -320 2
