Version 4
SHEET 1 2976 1044
WIRE 400 -80 336 -80
WIRE 400 -32 400 -80
WIRE 400 96 400 48
WIRE 336 128 336 -80
WIRE 336 128 288 128
WIRE 736 160 288 160
WIRE 160 176 80 176
WIRE 736 176 736 160
WIRE 80 192 80 176
WIRE 336 192 288 192
WIRE 336 240 336 192
WIRE 736 304 736 256
WIRE 336 352 336 320
WIRE 480 352 480 288
WIRE 720 352 480 352
WIRE 960 352 816 352
WIRE 1168 352 1040 352
WIRE 480 432 480 352
WIRE 1168 448 1168 352
WIRE 480 576 480 512
WIRE 1168 576 1168 528
WIRE 1168 576 480 576
FLAG 80 192 0
FLAG 336 352 0
FLAG 400 96 0
FLAG 480 288 0
SYMBOL AutoGenerated\\UCC27537_TRANS 224 160 R0
SYMATTR InstName U1
SYMBOL voltage 336 224 R0
WINDOW 123 0 0 Left 0
WINDOW 39 0 0 Left 0
SYMATTR InstName V1
SYMATTR Value 10
SYMBOL voltage 400 -48 R0
WINDOW 123 0 0 Left 0
WINDOW 39 0 0 Left 0
SYMATTR InstName V2
SYMATTR Value PULSE(0 5 0 2n 2n 10u 100u)
SYMBOL res 720 160 R0
SYMATTR InstName R3
SYMATTR Value 2
SYMBOL voltage 480 528 R180
WINDOW 0 24 96 Left 2
WINDOW 3 24 16 Left 2
WINDOW 123 0 0 Left 0
WINDOW 39 0 0 Left 0
SYMATTR InstName V3
SYMATTR Value 30
SYMBOL res 1056 336 R90
WINDOW 0 0 56 VBottom 2
WINDOW 3 32 56 VTop 2
SYMATTR InstName R4
SYMATTR Value 10
SYMBOL res 1152 432 R0
SYMATTR InstName R5
SYMATTR Value 1
SYMBOL nmos 816 304 R90
SYMATTR InstName M1
SYMATTR Value IPW65R037C6_L0
SYMATTR Prefix X
TEXT 72 584 Left 2 !.tran 0 500u 0 1u
TEXT 72 656 Left 2 !.include C:\\Users\\joey2\\Documents\\3e jaar\\BAP\\Github\\EDM_Powersupply\\Library\\IPW65R037C6_mosfet\\SimulationModel_CoolMOS_C6_MOSFET_650V_Spice.lib
