Version 4
SHEET 1 880 680
WIRE -176 -160 -176 -176
WIRE -176 -160 -256 -160
WIRE -112 -160 -176 -160
WIRE 192 -160 192 -176
WIRE 192 -160 112 -160
WIRE -256 -128 -256 -160
WIRE -176 -128 -176 -160
WIRE -112 -128 -112 -160
WIRE 112 -128 112 -160
WIRE 640 -96 480 -96
WIRE 640 -48 640 -96
WIRE -256 -16 -256 -48
WIRE -176 -16 -176 -64
WIRE -176 -16 -256 -16
WIRE -112 -16 -112 -64
WIRE -112 -16 -176 -16
WIRE -256 0 -256 -16
WIRE 112 0 112 -48
WIRE 480 48 480 -96
WIRE -16 64 -16 48
WIRE -16 64 -96 64
WIRE -96 80 -96 64
WIRE 640 80 640 32
WIRE -16 128 -16 64
WIRE 16 128 -16 128
WIRE 224 128 176 128
WIRE 368 128 304 128
WIRE 432 128 368 128
WIRE -224 160 -256 160
WIRE -96 160 -144 160
WIRE 16 160 -96 160
WIRE 224 160 176 160
WIRE -16 192 -16 128
WIRE 16 192 -16 192
WIRE 224 192 176 192
WIRE -256 224 -256 160
WIRE -112 224 -128 224
WIRE 16 224 -32 224
WIRE 336 224 176 224
WIRE 480 224 480 144
WIRE 480 224 336 224
WIRE 640 224 640 160
WIRE 640 224 480 224
WIRE 336 256 336 224
WIRE -256 352 -256 304
WIRE 352 352 320 352
WIRE 448 352 432 352
WIRE 320 416 320 352
WIRE 448 432 448 352
FLAG -256 352 0
FLAG 336 256 COM
FLAG -256 0 0
FLAG 224 192 VCC2
FLAG 192 -176 Vcc2
FLAG 224 160 VCC1
FLAG -176 -176 VCC1
FLAG 368 128 Vg
FLAG -128 224 Vg
FLAG -16 48 0
FLAG 448 432 COM
FLAG 320 416 0
FLAG 112 0 COM
SYMBOL AutoGenerated\\UCC5350SBD_TRANS 96 176 R0
SYMATTR InstName U1
SYMBOL voltage -256 208 R0
WINDOW 123 0 0 Left 0
WINDOW 39 0 0 Left 0
WINDOW 3 -51 153 VLeft 2
SYMATTR Value PULSE(0 5 0 2n 2n 10u 100u)
SYMATTR InstName V1
SYMBOL voltage 112 -144 R0
WINDOW 123 0 0 Left 0
WINDOW 39 0 0 Left 0
SYMATTR InstName V2
SYMATTR Value 15
SYMBOL cap -96 -64 R180
WINDOW 0 24 56 Left 2
WINDOW 3 24 8 Left 2
SYMATTR InstName C1
SYMATTR Value 100n
SYMBOL cap -160 -64 R180
WINDOW 0 24 56 Left 2
WINDOW 3 24 8 Left 2
SYMATTR InstName C2
SYMATTR Value 1u
SYMBOL voltage -256 -144 R0
WINDOW 123 0 0 Left 0
WINDOW 39 0 0 Left 0
SYMATTR InstName V3
SYMATTR Value 5
SYMBOL res -128 144 R90
WINDOW 0 0 56 VBottom 2
WINDOW 3 32 56 VTop 2
SYMATTR InstName R1
SYMATTR Value 10
SYMBOL res -112 64 R0
SYMATTR InstName R2
SYMATTR Value 10k
SYMBOL res 656 48 R180
WINDOW 0 36 76 Left 2
WINDOW 3 36 40 Left 2
SYMATTR InstName R4
SYMATTR Value 10
SYMBOL voltage 640 64 R0
WINDOW 123 0 0 Left 0
WINDOW 39 0 0 Left 0
SYMATTR InstName V4
SYMATTR Value 30
SYMBOL res -16 208 R90
WINDOW 0 0 56 VBottom 2
WINDOW 3 32 56 VTop 2
SYMATTR InstName R5
SYMATTR Value 10
SYMBOL res 320 112 R90
WINDOW 0 0 56 VBottom 2
WINDOW 3 32 56 VTop 2
SYMATTR InstName R6
SYMATTR Value 10
SYMBOL res 448 336 R90
WINDOW 0 0 56 VBottom 2
WINDOW 3 32 56 VTop 2
SYMATTR InstName R3
SYMATTR Value 1G
SYMBOL nmos 432 48 R0
SYMATTR InstName M2
TEXT -176 544 Left 2 !.include C:\\Users\\joey2\\Documents\\3e jaar\\BAP\\Github\\EDM_Powersupply\\Library\\IPW65R037C6_mosfet\\SimulationModel_CoolMOS_C6_MOSFET_650V_Spice.lib
TEXT -184 496 Left 2 !.tran 0 140u 0 1u
TEXT -176 584 Left 2 !.model NMOS NMOS
